    51

   O   1.008390   1.027504  -2.878376
   H   0.619374   0.593764  -2.076217
   H   1.083097   1.954181  -2.569866
  Co  -0.124682  -0.007197  -0.000541
   N  -1.503140  -1.296804  -0.047189
   C  -1.319713  -2.683578  -0.063326
   C  -2.634882  -3.411127   0.151897
   C  -3.683053  -2.310122  -0.092622
   C  -2.853101  -1.041310  -0.021062
   C  -0.111005  -3.326217  -0.224608
   C   1.109092  -2.623191  -0.348607
   N   1.147725  -1.292611  -0.267428
   C   2.554675  -0.817940  -0.439477
   C   3.416701  -2.058005  -0.140573
   C   2.487078  -3.222823  -0.563899
   C   2.637701   0.399660   0.473195
   N   1.318667   1.075624   0.275518
   C   1.479716   2.399315   0.327520
   C   2.927614   2.791446   0.565928
   C   3.680338   1.494084   0.179023
   C  -3.406772   0.235794   0.005027
   C  -2.673800   1.417763   0.017717
   N  -1.299830   1.471296   0.035732
   C  -0.913089   2.814096   0.011230
   C  -2.107821   3.721605  -0.224943
   C  -3.303613   2.797702   0.071990
   C   0.379744   3.274221   0.162473
   H   2.670225  -0.479376  -1.490042
   H   2.683025   0.056949   1.527613
   H  -4.499172   0.315275   0.007317
   H   0.555418   4.354509   0.148395
   H  -0.097595  -4.420378  -0.233977
   H   3.913776   1.503734  -0.902091
   H   4.621717   1.352120   0.735332
   H  -4.508216  -2.313773   0.640821
   H   3.232769   3.672569  -0.026264
   H  -2.119599   4.055665  -1.281502
   H   3.088545   3.049298   1.633085
   H  -4.137258   2.908251  -0.643036
   H   3.622056  -2.117410   0.944409
   H   4.380181  -2.050999  -0.676930
   H   2.630581  -3.487352  -1.631739
   H   2.642076  -4.145661   0.022340
   H  -2.075425   4.628998   0.401915
   H  -2.741551  -4.285391  -0.512504
   H  -3.717537   2.987029   1.082932
   H  -2.685339  -3.784847   1.193570
   H  -4.142992  -2.404716  -1.096653
   O   0.727716  -0.964988   2.941050
   H   0.329632  -0.136827   3.279750
   H   0.490960  -0.922195   1.978826
    51

   O   1.017160   1.030127  -2.877743
   H   0.625577   0.604611  -2.074012
   H   1.093692   1.958249  -2.579465
  Co  -0.126120  -0.006702   0.000095
   N  -1.501967  -1.295052  -0.049342
   C  -1.317483  -2.679616  -0.066151
   C  -2.630916  -3.406887   0.149814
   C  -3.678025  -2.308490  -0.098611
   C  -2.849791  -1.040716  -0.023902
   C  -0.110441  -3.319417  -0.225993
   C   1.108912  -2.619178  -0.349169
   N   1.147373  -1.291398  -0.265682
   C   2.553445  -0.815853  -0.438329
   C   3.412133  -2.055355  -0.135589
   C   2.485547  -3.217599  -0.565436
   C   2.635613   0.400899   0.473928
   N   1.317010   1.076282   0.275082
   C   1.476668   2.397545   0.328892
   C   2.922577   2.790010   0.568393
   C   3.673960   1.496134   0.175526
   C  -3.401268   0.234554   0.002990
   C  -2.671745   1.415674   0.018045
   N  -1.300047   1.469671   0.037988
   C  -0.913897   2.810397   0.014776
   C  -2.107437   3.716522  -0.222689
   C  -3.301456   2.793765   0.074751
   C   0.376459   3.268877   0.165040
   H   2.669909  -0.482740  -1.483118
   H   2.682534   0.063441   1.522350
   H  -4.487333   0.313028   0.004549
   H   0.549912   4.343090   0.150852
   H  -0.097747  -4.407188  -0.235254
   H   3.899804   1.508832  -0.900580
   H   4.612224   1.355447   0.724954
   H  -4.499911  -2.313074   0.629014
   H   3.225237   3.667502  -0.018657
   H  -2.119257   4.046359  -1.273820
   H   3.083522   3.040763   1.630543
   H  -4.129901   2.904470  -0.636521
   H   3.609909  -2.116535   0.944110
   H   4.372118  -2.048055  -0.665248
   H   2.630529  -3.474626  -1.628203
   H   2.639458  -4.136560   0.015188
   H  -2.076110   4.618458   0.400904
   H  -2.736303  -4.277002  -0.509740
   H  -3.710709   2.981489   1.080847
   H  -2.682196  -3.774485   1.186780
   H  -4.130592  -2.403754  -1.098821
   O   0.726682  -0.978569   2.938602
   H   0.325869  -0.155627   3.281829
   H   0.490550  -0.931723   1.978037
    51

   O   1.029211   1.043151  -2.872453
   H   0.632594   0.615208  -2.072892
   H   1.102979   1.970717  -2.572659
  Co  -0.127144  -0.006430  -0.000072
   N  -1.504913  -1.292641  -0.051522
   C  -1.321967  -2.677564  -0.068637
   C  -2.636820  -3.402971   0.147647
   C  -3.682370  -2.303139  -0.104398
   C  -2.852385  -1.036287  -0.026711
   C  -0.116024  -3.319347  -0.228461
   C   1.104780  -2.621012  -0.350912
   N   1.145372  -1.293621  -0.265213
   C   2.552693  -0.820126  -0.437817
   C   3.408820  -2.061570  -0.133465
   C   2.480865  -3.221735  -0.567659
   C   2.636546   0.396763   0.474061
   N   1.318586   1.074572   0.274649
   C   1.480144   2.395345   0.330929
   C   2.927069   2.785532   0.571065
   C   3.676103   1.490996   0.173993
   C  -3.401970   0.239868   0.001437
   C  -2.670577   1.419890   0.018735
   N  -1.298745   1.471866   0.039591
   C  -0.910005   2.811953   0.017492
   C  -2.102302   3.720371  -0.220079
   C  -3.298164   2.799233   0.077885
   C   0.380968   3.268503   0.168251
   H   2.669982  -0.488805  -1.482236
   H   2.683749   0.060526   1.522165
   H  -4.487991   0.320015   0.002383
   H   0.555921   4.342572   0.155179
   H  -0.105282  -4.407216  -0.238257
   H   3.897450   1.504863  -0.902644
   H   4.615586   1.348464   0.720659
   H  -4.506113  -2.306882   0.620736
   H   3.231004   3.663615  -0.013990
   H  -2.113568   4.048873  -1.271228
   H   3.088323   3.031897   1.633756
   H  -4.126611   2.912214  -0.632634
   H   3.602100  -2.124249   0.946578
   H   4.370114  -2.055632  -0.660556
   H   2.626174  -3.474778  -1.630902
   H   2.632962  -4.142021   0.010894
   H  -2.069576   4.621847   0.403699
   H  -2.742860  -4.273909  -0.510327
   H  -3.704822   2.986264   1.084725
   H  -2.689375  -3.766939   1.185435
   H  -4.130488  -2.397768  -1.106247
   O   0.725127  -0.994060   2.935875
   H   0.322137  -0.174692   3.284417
   H   0.489278  -0.942757   1.975842
    51

   O   1.052354   1.059991  -2.878329
   H   0.654358   0.656546  -2.067837
   H   1.126203   1.995967  -2.607670
  Co  -0.129193  -0.005043   0.000465
   N  -1.505908  -1.291637  -0.056081
   C  -1.321377  -2.676596  -0.073236
   C  -2.636466  -3.402603   0.144389
   C  -3.682056  -2.304562  -0.119695
   C  -2.853574  -1.036532  -0.033798
   C  -0.115585  -3.318161  -0.233366
   C   1.105530  -2.619151  -0.354074
   N   1.145872  -1.292553  -0.262556
   C   2.554060  -0.818232  -0.435015
   C   3.408601  -2.060469  -0.126481
   C   2.482594  -3.219316  -0.571298
   C   2.636476   0.399651   0.475109
   N   1.317384   1.077227   0.274526
   C   1.477518   2.397378   0.338334
   C   2.924834   2.788128   0.580087
   C   3.673516   1.496102   0.171380
   C  -3.404165   0.239218  -0.002232
   C  -2.673335   1.419551   0.021341
   N  -1.301556   1.472270   0.044445
   C  -0.913026   2.812484   0.025222
   C  -2.106076   3.721062  -0.212834
   C  -3.301725   2.798939   0.087070
   C   0.377231   3.270147   0.178133
   H   2.672651  -0.491129  -1.479588
   H   2.685094   0.066645   1.523417
   H  -4.490370   0.318758  -0.003206
   H   0.550933   4.344607   0.168259
   H  -0.104895  -4.406161  -0.244081
   H   3.882854   1.514853  -0.907149
   H   4.617375   1.352885   0.710190
   H  -4.512908  -2.309436   0.596806
   H   3.227714   3.670201   0.001028
   H  -2.118109   4.046002  -1.264646
   H   3.086323   3.023664   1.644713
   H  -4.131913   2.914120  -0.620619
   H   3.590874  -2.125753   0.954906
   H   4.373643  -2.053827  -0.646581
   H   2.630463  -3.462370  -1.636049
   H   2.633750  -4.142752   0.001928
   H  -2.073797   4.622513   0.410572
   H  -2.740017  -4.278233  -0.507276
   H  -3.702299   2.982785   1.096455
   H  -2.691858  -3.755462   1.185476
   H  -4.116400  -2.400769  -1.127023
   O   0.728278  -1.037667   2.926979
   H   0.312980  -0.231726   3.291050
   H   0.492105  -0.973731   1.968608
    51

   O   1.086332   1.097921  -2.854014
   H   0.671265   0.673654  -2.063362
   H   1.151546   2.027366  -2.559807
  Co  -0.130558  -0.004822  -0.000487
   N  -1.517911  -1.279544  -0.060293
   C  -1.344891  -2.666070  -0.078512
   C  -2.666252  -3.380832   0.139012
   C  -3.701992  -2.274544  -0.130083
   C  -2.863442  -1.013376  -0.039282
   C  -0.144730  -3.317792  -0.239534
   C   1.082370  -2.628894  -0.358982
   N   1.134059  -1.303031  -0.263916
   C   2.546551  -0.840574  -0.435752
   C   3.389772  -2.090610  -0.127321
   C   2.454493  -3.240354  -0.576900
   C   2.638831   0.376188   0.474544
   N   1.325354   1.065151   0.273863
   C   1.496241   2.383644   0.342171
   C   2.946886   2.761645   0.585170
   C   3.684382   1.464693   0.171193
   C  -3.403480   0.266836  -0.004997
   C  -2.662660   1.440867   0.022451
   N  -1.290481   1.481985   0.046341
   C  -0.890657   2.818947   0.029556
   C  -2.076109   3.737850  -0.207766
   C  -3.279331   2.825457   0.092317
   C   0.403161   3.265843   0.184017
   H   2.668512  -0.514467  -1.480142
   H   2.684652   0.042821   1.522877
   H  -4.489035   0.355515  -0.006841
   H   0.585580   4.338941   0.176721
   H  -0.143330  -4.405880  -0.251530
   H   3.890072   1.484573  -0.908045
   H   4.628544   1.312462   0.707087
   H  -4.536831  -2.273150   0.581764
   H   3.257132   3.643429   0.009570
   H  -2.085903   4.062566  -1.259703
   H   3.110419   2.990889   1.650877
   H  -4.109796   2.949366  -0.613576
   H   3.567863  -2.159529   0.954553
   H   4.356246  -2.091509  -0.644908
   H   2.601312  -3.480336  -1.642516
   H   2.597301  -4.166959  -0.006659
   H  -2.036084   4.638814   0.415912
   H  -2.776125  -4.257710  -0.509922
   H  -3.675815   3.010519   1.103119
   H  -2.726263  -3.728987   1.181483
   H  -4.130731  -2.367018  -1.140210
   O   0.721266  -1.069966   2.919401
   H   0.306766  -0.267374   3.291581
   H   0.484984  -0.996905   1.961932
    51

   O   1.103380   1.115184  -2.851126
   H   0.687332   0.701388  -2.055467
   H   1.168002   2.048568  -2.568603
  Co  -0.131062  -0.004291  -0.000430
   N  -1.521642  -1.275435  -0.061764
   C  -1.352437  -2.662524  -0.080220
   C  -2.675510  -3.373044   0.137330
   C  -3.707382  -2.265061  -0.136922
   C  -2.866707  -1.006034  -0.042589
   C  -0.153832  -3.317099  -0.242431
   C   1.074649  -2.630926  -0.361628
   N   1.129685  -1.304986  -0.265238
   C   2.543240  -0.846388  -0.436164
   C   3.383176  -2.098551  -0.129680
   C   2.445054  -3.245154  -0.579678
   C   2.638440   0.369592   0.474691
   N   1.326760   1.061636   0.275378
   C   1.500659   2.379740   0.347652
   C   2.951928   2.752995   0.591642
   C   3.686089   1.455956   0.173756
   C  -3.403832   0.275357  -0.006341
   C  -2.659897   1.447401   0.023894
   N  -1.287501   1.484996   0.047568
   C  -0.884769   2.821225   0.033030
   C  -2.067788   3.742660  -0.203703
   C  -3.272640   2.833172   0.096457
   C   0.410018   3.264873   0.190159
   H   2.666550  -0.519145  -1.480848
   H   2.683304   0.034152   1.523126
   H  -4.489184   0.366762  -0.008969
   H   0.594976   4.337579   0.185432
   H  -0.154728  -4.405192  -0.254774
   H   3.890968   1.478137  -0.905993
   H   4.630862   1.299976   0.707788
   H  -4.547008  -2.261496   0.569612
   H   3.264366   3.636543   0.019436
   H  -2.077157   4.068150  -1.255874
   H   3.116550   2.979379   1.658290
   H  -4.104836   2.960255  -0.607223
   H   3.562224  -2.169092   0.952344
   H   4.349876  -2.101357  -0.647148
   H   2.591704  -3.485866  -1.645652
   H   2.585416  -4.173147  -0.010614
   H  -2.025124   4.644293   0.419244
   H  -2.786481  -4.252946  -0.507662
   H  -3.667802   3.017815   1.108356
   H  -2.738156  -3.717576   1.181355
   H  -4.131365  -2.356919  -1.149648
   O   0.723653  -1.096595   2.910372
   H   0.304899  -0.299538   3.290255
   H   0.485368  -1.016188   1.953747
    51

   O   1.119899   1.135730  -2.840962
   H   0.701400   0.723259  -2.045915
   H   1.182624   2.069753  -2.559705
  Co  -0.131409  -0.004166  -0.000732
   N  -1.528156  -1.268601  -0.062576
   C  -1.366076  -2.656510  -0.081556
   C  -2.692442  -3.360021   0.135848
   C  -3.718087  -2.247693  -0.140653
   C  -2.871981  -0.992779  -0.044564
   C  -0.170447  -3.316374  -0.244713
   C   1.060955  -2.635906  -0.364311
   N   1.122314  -1.309923  -0.268441
   C   2.537652  -0.857996  -0.438495
   C   3.372055  -2.114153  -0.135035
   C   2.428047  -3.256120  -0.583035
   C   2.638919   0.355962   0.474777
   N   1.330722   1.054184   0.277749
   C   1.510774   2.371577   0.352409
   C   2.963438   2.736999   0.597185
   C   3.691297   1.437904   0.176490
   C  -3.402924   0.291089  -0.007191
   C  -2.653400   1.459520   0.024518
   N  -1.280832   1.490396   0.047657
   C  -0.872180   2.824894   0.035522
   C  -2.050602   3.751688  -0.200664
   C  -3.259207   2.847932   0.098626
   C   0.424618   3.261956   0.195105
   H   2.662382  -0.528414  -1.482685
   H   2.682215   0.017334   1.522635
   H  -4.487746   0.387718  -0.010084
   H   0.614638   4.333725   0.192563
   H  -0.176143  -4.404384  -0.257160
   H   3.896867   1.461777  -0.903294
   H   4.635509   1.276135   0.709861
   H  -4.560234  -2.240245   0.563043
   H   3.280066   3.620823   0.027390
   H  -2.058630   4.078577  -1.252680
   H   3.129596   2.961148   1.664335
   H  -4.091653   2.979935  -0.604078
   H   3.554491  -2.186179   0.946531
   H   4.337627  -2.120858  -0.654638
   H   2.572677  -3.499678  -1.648897
   H   2.564377  -4.184701  -0.013651
   H  -2.003732   4.653309   0.422226
   H  -2.807327  -4.241053  -0.507102
   H  -3.653807   3.033656   1.110831
   H  -2.757945  -3.703015   1.180496
   H  -4.140367  -2.337820  -1.154550
   O   0.724005  -1.117934   2.901028
   H   0.305843  -0.322945   3.286207
   H   0.483292  -1.031962   1.945248
    51

   O   1.116397   1.141452  -2.838497
   H   0.701931   0.730194  -2.040605
   H   1.177885   2.076448  -2.560158
  Co  -0.131471  -0.004503  -0.000807
   N  -1.528397  -1.268880  -0.061765
   C  -1.366386  -2.656751  -0.080830
   C  -2.692702  -3.360200   0.136487
   C  -3.718507  -2.247526  -0.138098
   C  -2.872144  -0.992745  -0.043452
   C  -0.170631  -3.316417  -0.243976
   C   1.060647  -2.636050  -0.364652
   N   1.121903  -1.309870  -0.270990
   C   2.536945  -0.857716  -0.440917
   C   3.372283  -2.113883  -0.139695
   C   2.427479  -3.256460  -0.584123
   C   2.638838   0.354571   0.474944
   N   1.330678   1.053161   0.280107
   C   1.511071   2.370613   0.354071
   C   2.963783   2.735647   0.598653
   C   3.691468   1.436567   0.177789
   C  -3.402802   0.291229  -0.006827
   C  -2.653182   1.459607   0.024038
   N  -1.280634   1.490326   0.046951
   C  -0.871696   2.824745   0.035752
   C  -2.049779   3.751785  -0.200459
   C  -3.258800   2.848072   0.097315
   C   0.425232   3.261196   0.196195
   H   2.661110  -0.525625  -1.484367
   H   2.682837   0.013489   1.521945
   H  -4.487592   0.388008  -0.009451
   H   0.615608   4.332885   0.194091
   H  -0.176150  -4.404411  -0.255920
   H   3.897843   1.460911  -0.901799
   H   4.635332   1.274267   0.711624
   H  -4.559343  -2.239898   0.567184
   H   3.280397   3.619383   0.028710
   H  -2.056951   4.079776  -1.252141
   H   3.130242   2.960109   1.665690
   H  -4.090318   2.980081  -0.606503
   H   3.558499  -2.185453   0.941226
   H   4.336215  -2.120500  -0.662325
   H   2.570575  -3.502675  -1.649568
   H   2.564592  -4.183820  -0.012908
   H  -2.003107   4.652900   0.423181
   H  -2.807990  -4.240379  -0.507572
   H  -3.655003   3.033749   1.108896
   H  -2.757577  -3.704900   1.180607
   H  -4.142988  -2.337300  -1.151095
   O   0.726984  -1.117957   2.897800
   H   0.310690  -0.321940   3.282918
   H   0.484380  -1.032534   1.942297
    51

   O   1.113174   1.151060  -2.832488
   H   0.702841   0.738596  -2.033011
   H   1.172222   2.086337  -2.554743
  Co  -0.131655  -0.004934  -0.000833
   N  -1.530375  -1.267380  -0.061327
   C  -1.370123  -2.655384  -0.080494
   C  -2.697345  -3.357425   0.136819
   C  -3.722135  -2.242925  -0.134789
   C  -2.873622  -0.989287  -0.042268
   C  -0.175160  -3.316474  -0.243601
   C   1.056963  -2.637741  -0.365615
   N   1.119906  -1.311554  -0.274197
   C   2.535209  -0.860707  -0.444208
   C   3.369861  -2.118190  -0.145350
   C   2.422671  -3.260288  -0.586400
   C   2.639644   0.349406   0.474764
   N   1.332211   1.050081   0.283098
   C   1.514632   2.367293   0.356152
   C   2.967984   2.730434   0.600095
   C   3.693591   1.430516   0.177943
   C  -3.402302   0.295559  -0.006724
   C  -2.651033   1.462934   0.023243
   N  -1.278514   1.491653   0.046649
   C  -0.867451   2.825369   0.036657
   C  -2.043931   3.754576  -0.199722
   C  -3.254850   2.852370   0.095385
   C   0.430167   3.259538   0.197927
   H   2.658932  -0.526142  -1.486781
   H   2.684494   0.005704   1.520729
   H  -4.486971   0.393923  -0.009153
   H   0.622276   4.330943   0.196363
   H  -0.182015  -4.404492  -0.255046
   H   3.899453   1.455555  -0.901663
   H   4.637374   1.266569   0.711385
   H  -4.560628  -2.234207   0.573254
   H   3.285333   3.613815   0.030073
   H  -2.049425   4.084046  -1.250877
   H   3.135426   2.954135   1.667066
   H  -4.084361   2.985673  -0.610530
   H   3.559567  -2.189557   0.934909
   H   4.332013  -2.125947  -0.671182
   H   2.563427  -3.508749  -1.651547
   H   2.559492  -4.186585  -0.013436
   H  -1.996739   4.654579   0.425449
   H  -2.814470  -4.235901  -0.509216
   H  -3.653062   3.038542   1.105994
   H  -2.761822  -3.704303   1.180151
   H  -4.149852  -2.331915  -1.146391
   O   0.729375  -1.119617   2.894199
   H   0.317133  -0.321567   3.279402
   H   0.484436  -1.034426   1.939174
    51

   O   1.110028   1.153573  -2.831144
   H   0.701523   0.740274  -2.031108
   H   1.167471   2.088996  -2.553574
  Co  -0.131686  -0.005110  -0.000709
   N  -1.530174  -1.267768  -0.061431
   C  -1.369516  -2.655709  -0.080494
   C  -2.696553  -3.358214   0.136889
   C  -3.721865  -2.243730  -0.133530
   C  -2.873438  -0.989934  -0.041915
   C  -0.174456  -3.316594  -0.243692
   C   1.057531  -2.637590  -0.365997
   N   1.120215  -1.311458  -0.274647
   C   2.535392  -0.860265  -0.444946
   C   3.370448  -2.117662  -0.146463
   C   2.423312  -3.259960  -0.587261
   C   2.639942   0.349546   0.474396
   N   1.332193   1.050034   0.283692
   C   1.514397   2.367236   0.356455
   C   2.967813   2.730727   0.599790
   C   3.693512   1.430953   0.177109
   C  -3.402344   0.294847  -0.006767
   C  -2.651252   1.462339   0.022984
   N  -1.278748   1.491293   0.046988
   C  -0.867792   2.825000   0.037097
   C  -2.044313   3.754232  -0.199368
   C  -3.255402   2.851696   0.094587
   C   0.429776   3.259362   0.198371
   H   2.658878  -0.525530  -1.487448
   H   2.685575   0.005547   1.520183
   H  -4.487034   0.393041  -0.009245
   H   0.621753   4.330792   0.196835
   H  -0.181092  -4.404614  -0.255092
   H   3.898541   1.456117  -0.902625
   H   4.637652   1.267154   0.709965
   H  -4.559337  -2.235114   0.575705
   H   3.284682   3.614167   0.029650
   H  -2.049187   4.084330  -1.250291
   H   3.135647   2.954211   1.666712
   H  -4.084129   2.984808  -0.612259
   H   3.560373  -2.189060   0.933728
   H   4.332426  -2.125237  -0.672613
   H   2.563766  -3.508222  -1.652459
   H   2.560530  -4.186177  -0.014304
   H  -1.997549   4.653748   0.426507
   H  -2.813683  -4.236080  -0.509952
   H  -3.654652   3.037696   1.104779
   H  -2.760450  -3.705979   1.179915
   H  -4.150876  -2.332683  -1.144542
   O   0.730555  -1.118875   2.894407
   H   0.319470  -0.320136   3.279391
   H   0.485005  -1.034047   1.939522
    51

   O   1.105668   1.157471  -2.829340
   H   0.699859   0.743326  -2.028294
   H   1.160385   2.093288  -2.552532
  Co  -0.131607  -0.005343  -0.000472
   N  -1.530308  -1.267738  -0.061776
   C  -1.369727  -2.655670  -0.080650
   C  -2.696760  -3.358245   0.136935
   C  -3.722258  -2.243484  -0.131994
   C  -2.873501  -0.989796  -0.041581
   C  -0.174827  -3.316747  -0.244244
   C   1.057218  -2.637833  -0.366826
   N   1.120158  -1.311793  -0.274919
   C   2.535328  -0.860763  -0.445791
   C   3.370196  -2.118396  -0.147584
   C   2.422827  -3.260356  -0.588859
   C   2.640581   0.348945   0.473532
   N   1.332632   1.049505   0.284148
   C   1.514977   2.366649   0.356846
   C   2.968593   2.730106   0.599190
   C   3.693826   1.430453   0.175317
   C  -3.402233   0.295091  -0.006843
   C  -2.650949   1.462458   0.022792
   N  -1.278443   1.491198   0.047782
   C  -0.867230   2.824766   0.037988
   C  -2.043473   3.754468  -0.198415
   C  -3.255045   2.851907   0.093672
   C   0.430426   3.258964   0.199233
   H   2.658761  -0.526391  -1.488425
   H   2.687179   0.004884   1.519253
   H  -4.486913   0.393462  -0.009459
   H   0.622558   4.330369   0.197856
   H  -0.181608  -4.404767  -0.255734
   H   3.897375   1.455960  -0.904689
   H   4.638633   1.266528   0.706951
   H  -4.558497  -2.234684   0.578701
   H   3.285001   3.613756   0.029143
   H  -2.047416   4.085804  -1.248930
   H   3.137298   2.953021   1.666093
   H  -4.082622   2.985128  -0.614502
   H   3.559856  -2.190130   0.932635
   H   4.332249  -2.126003  -0.673598
   H   2.562933  -3.507816  -1.654290
   H   2.560079  -4.186963  -0.016557
   H  -1.997012   4.653216   0.428592
   H  -2.814277  -4.235428  -0.510773
   H  -3.655882   3.037837   1.103231
   H  -2.760103  -3.707061   1.179617
   H  -4.153017  -2.332380  -1.142243
   O   0.732295  -1.118808   2.895209
   H   0.322977  -0.319162   3.280189
   H   0.485809  -1.034143   1.940598
    51

   O   1.102630   1.160011  -2.828738
   H   0.698397   0.745279  -2.027181
   H   1.155229   2.096098  -2.552420
  Co  -0.131473  -0.005522  -0.000373
   N  -1.530050  -1.268098  -0.061906
   C  -1.369290  -2.656007  -0.080739
   C  -2.696157  -3.358781   0.137047
   C  -3.721888  -2.244155  -0.131427
   C  -2.873280  -0.990361  -0.041400
   C  -0.174332  -3.316902  -0.244698
   C   1.057576  -2.637805  -0.367347
   N   1.120395  -1.311772  -0.274825
   C   2.535471  -0.860643  -0.446089
   C   3.370429  -2.118197  -0.147912
   C   2.423242  -3.260029  -0.589750
   C   2.640820   0.349251   0.472905
   N   1.332654   1.049537   0.283962
   C   1.514766   2.366711   0.356867
   C   2.968398   2.730357   0.598665
   C   3.693675   1.430948   0.174231
   C  -3.402185   0.294450  -0.006715
   C  -2.651079   1.461917   0.022900
   N  -1.278568   1.490854   0.048198
   C  -0.867575   2.824474   0.038459
   C  -2.043915   3.754097  -0.197712
   C  -3.255436   2.851246   0.093539
   C   0.430045   3.258853   0.199612
   H   2.658910  -0.526702  -1.488894
   H   2.687913   0.005356   1.518682
   H  -4.486875   0.392671  -0.009355
   H   0.621995   4.330287   0.198352
   H  -0.180960  -4.404918  -0.256328
   H   3.896551   1.456620  -0.905903
   H   4.638845   1.267126   0.705257
   H  -4.557789  -2.235420   0.579677
   H   3.284393   3.614216   0.028706
   H  -2.047599   4.086214  -1.247986
   H   3.137530   2.953103   1.665550
   H  -4.082592   2.984337  -0.615165
   H   3.559738  -2.190193   0.932361
   H   4.332668  -2.125586  -0.673598
   H   2.563387  -3.506843  -1.655344
   H   2.560644  -4.186998  -0.018061
   H  -1.997723   4.652467   0.429874
   H  -2.813681  -4.235873  -0.510796
   H  -3.657081   3.037013   1.102812
   H  -2.759198  -3.707898   1.179654
   H  -4.153224  -2.333112  -1.141433
   O   0.733849  -1.118273   2.896026
   H   0.324942  -0.318448   3.281081
   H   0.486791  -1.033780   1.941584
    51

   O   1.099793   1.161996  -2.828707
   H   0.696898   0.746925  -2.026651
   H   1.150937   2.098307  -2.552870
  Co  -0.131337  -0.005702  -0.000356
   N  -1.529862  -1.268404  -0.061802
   C  -1.369048  -2.656306  -0.080698
   C  -2.695830  -3.359136   0.137257
   C  -3.721634  -2.244594  -0.131125
   C  -2.873110  -0.990748  -0.041147
   C  -0.174061  -3.317088  -0.244932
   C   1.057763  -2.637905  -0.367647
   N   1.120525  -1.311856  -0.274760
   C   2.535532  -0.860676  -0.446323
   C   3.370543  -2.118175  -0.148150
   C   2.423455  -3.259941  -0.590286
   C   2.640973   0.349389   0.472411
   N   1.332716   1.049513   0.283613
   C   1.514711   2.366707   0.356724
   C   2.968348   2.730446   0.598224
   C   3.693632   1.431176   0.173478
   C  -3.402097   0.294015  -0.006408
   C  -2.651097   1.461546   0.023135
   N  -1.278585   1.490607   0.048328
   C  -0.867731   2.824278   0.038705
   C  -2.044168   3.753842  -0.197119
   C  -3.255605   2.850797   0.093774
   C   0.429880   3.258736   0.199734
   H   2.658947  -0.527041  -1.489249
   H   2.688252   0.005654   1.518244
   H  -4.486794   0.392149  -0.008961
   H   0.621717   4.330192   0.198614
   H  -0.180619  -4.405104  -0.256703
   H   3.896201   1.456975  -0.906714
   H   4.638974   1.267417   0.704220
   H  -4.557511  -2.235918   0.580014
   H   3.284122   3.614415   0.028302
   H  -2.047874   4.086474  -1.247232
   H   3.137737   2.953116   1.665093
   H  -4.082613   2.983833  -0.615125
   H   3.559696  -2.190279   0.932150
   H   4.332867  -2.125433  -0.673684
   H   2.563590  -3.506409  -1.655973
   H   2.560944  -4.187117  -0.018945
   H  -1.998056   4.651967   0.430838
   H  -2.813383  -4.236291  -0.510503
   H  -3.657595   3.036429   1.102937
   H  -2.758741  -3.708235   1.179887
   H  -4.153053  -2.333567  -1.141101
   O   0.735328  -1.117171   2.896662
   H   0.326414  -0.317367   3.281755
   H   0.487763  -1.032965   1.942344
    51

   O   1.096354   1.164620  -2.829055
   H   0.694727   0.748926  -2.026712
   H   1.146577   2.100940  -2.553101
  Co  -0.131199  -0.005962  -0.000416
   N  -1.529582  -1.268889  -0.061425
   C  -1.368669  -2.656781  -0.080536
   C  -2.695373  -3.359678   0.137557
   C  -3.721214  -2.245292  -0.131197
   C  -2.872862  -0.991353  -0.040812
   C  -0.173614  -3.317399  -0.244944
   C   1.058107  -2.638075  -0.367734
   N   1.120704  -1.312003  -0.274759
   C   2.535614  -0.860653  -0.446600
   C   3.370846  -2.118016  -0.148480
   C   2.423870  -3.259904  -0.590511
   C   2.641042   0.349554   0.471939
   N   1.332721   1.049521   0.283046
   C   1.514552   2.366729   0.356356
   C   2.968169   2.730612   0.597682
   C   3.693580   1.431410   0.172912
   C  -3.401997   0.293332  -0.005843
   C  -2.651155   1.460974   0.023616
   N  -1.278651   1.490237   0.048199
   C  -0.868024   2.824007   0.038803
   C  -2.044684   3.753400  -0.196521
   C  -3.255872   2.850116   0.094626
   C   0.429562   3.258604   0.199598
   H   2.658837  -0.527150  -1.489590
   H   2.688338   0.005975   1.517820
   H  -4.486708   0.391319  -0.008174
   H   0.621226   4.330095   0.198631
   H  -0.180060  -4.405417  -0.256864
   H   3.896142   1.457221  -0.907275
   H   4.638938   1.267760   0.703659
   H  -4.557464  -2.236785   0.579500
   H   3.283777   3.614585   0.027671
   H  -2.048818   4.086209  -1.246577
   H   3.137653   2.953372   1.664514
   H  -4.083104   2.983110  -0.614022
   H   3.560128  -2.190068   0.931796
   H   4.333110  -2.125143  -0.674124
   H   2.563950  -3.506366  -1.656208
   H   2.561543  -4.187068  -0.019190
   H  -1.998527   4.651438   0.431558
   H  -2.812851  -4.237090  -0.509864
   H  -3.657610   3.035557   1.103922
   H  -2.758316  -3.708373   1.180331
   H  -4.152065  -2.334263  -1.141422
   O   0.737226  -1.114951   2.897160
   H   0.327592  -0.315537   3.282293
   H   0.489111  -1.031236   1.942936
    51

   O   1.094001   1.166774  -2.829370
   H   0.693056   0.750550  -2.026984
   H   1.144562   2.102885  -2.552770
  Co  -0.131138  -0.006157  -0.000429
   N  -1.529672  -1.268923  -0.061130
   C  -1.368967  -2.656841  -0.080382
   C  -2.695794  -3.359505   0.137726
   C  -3.721401  -2.245007  -0.131457
   C  -2.872915  -0.991188  -0.040643
   C  -0.174016  -3.317634  -0.244810
   C   1.057792  -2.638460  -0.367667
   N   1.120534  -1.312403  -0.274799
   C   2.535459  -0.861176  -0.446873
   C   3.370651  -2.118601  -0.148900
   C   2.423459  -3.260473  -0.590560
   C   2.641173   0.349039   0.471615
   N   1.332952   1.049188   0.282724
   C   1.514974   2.366351   0.356086
   C   2.968662   2.730054   0.597284
   C   3.693871   1.430727   0.172512
   C  -3.401883   0.293555  -0.005444
   C  -2.650878   1.461099   0.024041
   N  -1.278368   1.490200   0.048128
   C  -0.867592   2.823943   0.038877
   C  -2.044216   3.753456  -0.196140
   C  -3.255401   2.850303   0.095493
   C   0.430069   3.258379   0.199480
   H   2.658467  -0.527668  -1.489879
   H   2.688413   0.005523   1.517513
   H  -4.486581   0.391685  -0.007624
   H   0.621856   4.329849   0.198595
   H  -0.180620  -4.405651  -0.256787
   H   3.896440   1.456518  -0.907673
   H   4.639202   1.266961   0.703268
   H  -4.558032  -2.236446   0.578782
   H   3.284348   3.613936   0.027176
   H  -2.048674   4.086111  -1.246242
   H   3.138267   2.952846   1.664086
   H  -4.082962   2.983485  -0.612732
   H   3.560246  -2.190555   0.931324
   H   4.332759  -2.125859  -0.674825
   H   2.563328  -3.507175  -1.656225
   H   2.561129  -4.187523  -0.019055
   H  -1.997750   4.651552   0.431825
   H  -2.813336  -4.237102  -0.509423
   H  -3.656585   3.035670   1.105020
   H  -2.758916  -3.707811   1.180623
   H  -4.151668  -2.333877  -1.141942
   O   0.738407  -1.113293   2.897354
   H   0.328151  -0.314254   3.282604
   H   0.489953  -1.029807   1.943176
    51

   O   1.092783   1.168563  -2.829505
   H   0.691895   0.751825  -2.027383
   H   1.144698   2.104247  -2.551707
  Co  -0.131131  -0.006278  -0.000340
   N  -1.529965  -1.268663  -0.061049
   C  -1.369601  -2.656627  -0.080291
   C  -2.696643  -3.358938   0.137741
   C  -3.721909  -2.244210  -0.131803
   C  -2.873141  -0.990605  -0.040703
   C  -0.174834  -3.317760  -0.244639
   C   1.057155  -2.638881  -0.367555
   N   1.120198  -1.312861  -0.274813
   C   2.535182  -0.861903  -0.447143
   C   3.370209  -2.119504  -0.149439
   C   2.422636  -3.261256  -0.590634
   C   2.641348   0.348212   0.471414
   N   1.333270   1.048699   0.282732
   C   1.515631   2.365803   0.356031
   C   2.969440   2.729164   0.597068
   C   3.694285   1.429644   0.172217
   C  -3.401791   0.294271  -0.005322
   C  -2.650472   1.461609   0.024341
   N  -1.277945   1.490348   0.048265
   C  -0.866840   2.823988   0.039010
   C  -2.043265   3.753763  -0.196001
   C  -3.254588   2.850972   0.096152
   C   0.430934   3.258126   0.199513
   H   2.657940  -0.528288  -1.490138
   H   2.688644   0.004647   1.517289
   H  -4.486462   0.392686  -0.007492
   H   0.622991   4.329545   0.198607
   H  -0.181719  -4.405774  -0.256574
   H   3.896767   1.455394  -0.907987
   H   4.639626   1.265633   0.702880
   H  -4.558807  -2.235454   0.578116
   H   3.285279   3.612957   0.026911
   H  -2.047887   4.086019  -1.246231
   H   3.139206   2.951912   1.663851
   H  -4.082481   2.984456  -0.611620
   H   3.560224  -2.191422   0.930714
   H   4.332113  -2.127002  -0.675733
   H   2.562188  -3.508250  -1.656270
   H   2.560234  -4.188192  -0.018928
   H  -1.996438   4.652052   0.431655
   H  -2.814310  -4.236626  -0.509256
   H  -3.655141   3.036398   1.105924
   H  -2.760020  -3.706988   1.180708
   H  -4.151786  -2.332997  -1.142463
   O   0.738940  -1.112601   2.897328
   H   0.328285  -0.313907   3.282870
   H   0.490401  -1.028924   1.943165
    51

   O   1.092137   1.170442  -2.829399
   H   0.690926   0.753161  -2.027750
   H   1.145997   2.105553  -2.550038
  Co  -0.131145  -0.006355  -0.000138
   N  -1.530505  -1.268099  -0.061154
   C  -1.370684  -2.656134  -0.080238
   C  -2.698035  -3.357891   0.137730
   C  -3.722822  -2.242772  -0.132054
   C  -2.873570  -0.989513  -0.040892
   C  -0.176203  -3.317790  -0.244526
   C   1.056063  -2.639405  -0.367555
   N   1.119630  -1.313431  -0.274825
   C   2.534707  -0.862943  -0.447525
   C   3.369417  -2.120874  -0.150306
   C   2.421237  -3.262314  -0.591021
   C   2.641601   0.346947   0.471245
   N   1.333736   1.047956   0.283044
   C   1.516654   2.364990   0.356262
   C   2.970651   2.727763   0.597090
   C   3.694891   1.428014   0.171942
   C  -3.401688   0.295586  -0.005409
   C  -2.649863   1.462585   0.024520
   N  -1.277308   1.490721   0.048617
   C  -0.865625   2.824170   0.039262
   C  -2.041635   3.754403  -0.195986
   C  -3.253311   2.852220   0.096538
   C   0.432331   3.257779   0.199799
   H   2.657183  -0.529130  -1.490487
   H   2.689064   0.003173   1.517045
   H  -4.486315   0.394468  -0.007678
   H   0.624851   4.329113   0.198826
   H  -0.183531  -4.405800  -0.256356
   H   3.897158   1.453816  -0.908306
   H   4.640291   1.263569   0.702368
   H  -4.559825  -2.233623   0.577738
   H   3.286741   3.611510   0.027002
   H  -2.046151   4.086201  -1.246366
   H   3.140694   2.950292   1.663875
   H  -4.081421   2.986125  -0.610893
   H   3.559976  -2.192879   0.929746
   H   4.331056  -2.128699  -0.677080
   H   2.560305  -3.509532  -1.656668
   H   2.558691  -4.189217  -0.019227
   H  -1.994376   4.652923   0.431301
   H  -2.815970  -4.235594  -0.509197
   H  -3.653351   3.037808   1.106493
   H  -2.761667  -3.705812   1.180725
   H  -4.152590  -2.331465  -1.142771
   O   0.739164  -1.112965   2.897159
   H   0.328503  -0.314553   3.283282
   H   0.490681  -1.028573   1.943024
    51

   O   1.092137   1.170442  -2.829399
   H   0.690926   0.753161  -2.027750
   H   1.145997   2.105553  -2.550038
  Co  -0.131145  -0.006355  -0.000138
   N  -1.530505  -1.268099  -0.061154
   C  -1.370684  -2.656134  -0.080238
   C  -2.698035  -3.357891   0.137730
   C  -3.722822  -2.242772  -0.132054
   C  -2.873570  -0.989513  -0.040892
   C  -0.176203  -3.317790  -0.244526
   C   1.056063  -2.639405  -0.367555
   N   1.119630  -1.313431  -0.274825
   C   2.534707  -0.862943  -0.447525
   C   3.369417  -2.120874  -0.150306
   C   2.421237  -3.262314  -0.591021
   C   2.641601   0.346947   0.471245
   N   1.333736   1.047956   0.283044
   C   1.516654   2.364990   0.356262
   C   2.970651   2.727763   0.597090
   C   3.694891   1.428014   0.171942
   C  -3.401688   0.295586  -0.005409
   C  -2.649863   1.462585   0.024520
   N  -1.277308   1.490721   0.048617
   C  -0.865625   2.824170   0.039262
   C  -2.041635   3.754403  -0.195986
   C  -3.253311   2.852220   0.096538
   C   0.432331   3.257779   0.199799
   H   2.657183  -0.529130  -1.490487
   H   2.689064   0.003173   1.517045
   H  -4.486315   0.394468  -0.007678
   H   0.624851   4.329113   0.198826
   H  -0.183531  -4.405800  -0.256356
   H   3.897158   1.453816  -0.908306
   H   4.640291   1.263569   0.702368
   H  -4.559825  -2.233623   0.577738
   H   3.286741   3.611510   0.027002
   H  -2.046151   4.086201  -1.246366
   H   3.140694   2.950292   1.663875
   H  -4.081421   2.986125  -0.610893
   H   3.559976  -2.192879   0.929746
   H   4.331056  -2.128699  -0.677080
   H   2.560305  -3.509532  -1.656668
   H   2.558691  -4.189217  -0.019227
   H  -1.994376   4.652923   0.431301
   H  -2.815970  -4.235594  -0.509197
   H  -3.653351   3.037808   1.106493
   H  -2.761667  -3.705812   1.180725
   H  -4.152590  -2.331465  -1.142771
   O   0.739164  -1.112965   2.897159
   H   0.328503  -0.314553   3.283282
   H   0.490681  -1.028573   1.943024
